*SPEF "IEEE 1481-1998"
*DESIGN "adder"
*DATE "Wed Mar 26 03:29:32 2025"
*VENDOR "Cadence Design Systems, Inc."
*PROGRAM "Innovus"
*VERSION "23.13-s082_1"
*DESIGN_FLOW "COUPLING C" "PIN_CAP NONE" "NAME_SCOPE LOCAL"
*DIVIDER /
*DELIMITER :
*BUS_DELIMITER []
*T_UNIT 1 NS
*C_UNIT 1 PF
*R_UNIT 1 OHM
*L_UNIT 1 HENRY

// MMMC spef file for corner 'rc_corner'

*NAME_MAP

*1 clk
*2 a[7]
*3 a[6]
*4 a[5]
*5 a[4]
*6 a[3]
*7 a[2]
*8 a[1]
*9 a[0]
*10 b[7]
*11 b[6]
*12 b[5]
*13 b[4]
*14 b[3]
*15 b[2]
*16 b[1]
*17 b[0]
*18 sum[7]
*19 sum[6]
*20 sum[5]
*21 sum[4]
*22 sum[3]
*23 sum[2]
*24 sum[1]
*25 sum[0]
*26 cout
*27 t1[7]
*28 t1[6]
*29 t1[5]
*30 t1[4]
*31 t1[3]
*32 t1[2]
*33 t1[1]
*34 t1[0]
*35 t2[7]
*36 t2[6]
*37 t2[5]
*38 t2[4]
*39 t2[3]
*40 t2[2]
*41 t2[1]
*42 t2[0]
*43 n_0
*44 n_1
*45 n_2
*46 n_3
*47 n_4
*48 n_5
*49 n_6
*50 n_7
*51 n_8
*52 n_9
*53 n_10
*54 n_11
*55 n_12
*56 n_13
*57 n_14
*58 n_15
*59 sum_reg\[7\]
*60 cout_reg
*61 g739__2398
*62 sum_reg\[6\]
*63 g741__5107
*64 sum_reg\[5\]
*65 g743__6260
*66 sum_reg\[4\]
*67 g745__4319
*68 sum_reg\[3\]
*69 g747__8428
*70 sum_reg\[2\]
*71 g749__5526
*72 sum_reg\[1\]
*73 g751__6783
*74 sum_reg\[0\]
*75 g753__3680
*76 g754__1617
*77 t1_reg\[7\]
*78 t2_reg\[1\]
*79 t2_reg\[7\]
*80 t1_reg\[5\]
*81 t1_reg\[6\]
*82 t2_reg\[3\]
*83 t1_reg\[0\]
*84 t2_reg\[0\]
*85 t1_reg\[1\]
*86 t2_reg\[6\]
*87 t1_reg\[4\]
*88 t2_reg\[4\]
*89 t1_reg\[2\]
*90 t2_reg\[5\]
*91 t1_reg\[3\]
*92 t2_reg\[2\]


*PORTS

*1 I *C 0 12.065
*2 I *C 24.3 25.65
*3 I *C 21.9 25.65
*4 I *C 19.5 25.65
*5 I *C 17.1 25.65
*6 I *C 14.7 25.65
*7 I *C 12.3 25.65
*8 I *C 9.9 25.65
*9 I *C 7.5 25.65
*10 I *C 7.9 0
*11 I *C 10.3 0
*12 I *C 12.7 0
*13 I *C 15.1 0
*14 I *C 17.5 0
*15 I *C 19.9 0
*16 I *C 22.3 0
*17 I *C 24.7 0
*18 O *C 26.4 5.225
*19 O *C 26.4 7.695
*20 O *C 26.4 10.165
*21 O *C 26.4 12.635
*22 O *C 26.4 15.105
*23 O *C 26.4 17.575
*24 O *C 26.4 20.045
*25 O *C 26.4 22.515
*26 O *C 0 0


*D_NET *1 0.00838922

*CONN
*P *1 I *C 0 12.065 *L 0
*I *92:CK I *C 18.675 7.95 *L 0.00021 *D DFFHQX1
*I *91:CK I *C 14.675 18.21 *L 0.00021 *D DFFHQX1
*I *90:CK I *C 13.475 5.73 *L 0.00021 *D DFFHQX1
*I *89:CK I *C 11.875 19.41 *L 0.00021 *D DFFHQX1
*I *88:CK I *C 12.275 7.95 *L 0.00021 *D DFFHQX1
*I *87:CK I *C 15.275 19.41 *L 0.00021 *D DFFHQX1
*I *86:CK I *C 9.075 7.95 *L 0.00021 *D DFFHQX1
*I *85:CK I *C 8.475 19.41 *L 0.00021 *D DFFHQX1
*I *84:CK I *C 6.285 11.445 *L 0.00021 *D DFFQXL
*I *83:CK I *C 6.285 18.285 *L 0.00021 *D DFFQXL
*I *82:CK I *C 15.475 7.95 *L 0.00021 *D DFFHQX1
*I *81:CK I *C 18.475 18.21 *L 0.00021 *D DFFHQX1
*I *80:CK I *C 18.475 19.41 *L 0.00021 *D DFFHQX1
*I *79:CK I *C 5.875 7.95 *L 0.00021 *D DFFHQX1
*I *78:CK I *C 18.475 5.73 *L 0.00021 *D DFFHQX1
*I *77:CK I *C 9.475 12.57 *L 0.00021 *D DFFHQX1
*I *74:CK I *C 6.485 15.915 *L 0.00021 *D DFFQXL
*I *72:CK I *C 10.475 18.21 *L 0.00021 *D DFFHQX1
*I *70:CK I *C 18.475 15.99 *L 0.00021 *D DFFHQX1
*I *68:CK I *C 18.475 14.79 *L 0.00021 *D DFFHQX1
*I *66:CK I *C 18.475 12.57 *L 0.00021 *D DFFHQX1
*I *64:CK I *C 18.475 11.37 *L 0.00021 *D DFFHQX1
*I *62:CK I *C 18.475 9.15 *L 0.00021 *D DFFHQX1
*I *60:CK I *C 5.875 9.15 *L 0.00021 *D DFFHQX1
*I *59:CK I *C 9.275 5.73 *L 0.00021 *D DFFHQX1

*CAP
1 *1 9.76191e-06
2 *92:CK 2.26728e-05
3 *91:CK 2.26728e-05
4 *90:CK 2.26728e-05
5 *89:CK 2.26728e-05
6 *88:CK 2.26728e-05
7 *87:CK 2.26728e-05
8 *86:CK 2.26728e-05
9 *85:CK 2.26728e-05
10 *84:CK 2.26728e-05
11 *83:CK 2.26728e-05
12 *82:CK 2.26728e-05
13 *81:CK 2.26728e-05
14 *80:CK 2.26728e-05
15 *79:CK 2.26728e-05
16 *78:CK 2.26728e-05
17 *77:CK 2.26728e-05
18 *74:CK 2.26728e-05
19 *72:CK 2.26728e-05
20 *70:CK 2.26728e-05
21 *68:CK 2.26728e-05
22 *66:CK 2.26728e-05
23 *64:CK 2.26728e-05
24 *62:CK 2.26728e-05
25 *60:CK 2.26728e-05
26 *59:CK 2.26728e-05
27 *1:26 1.78834e-05
28 *1:27 1.78834e-05
29 *1:28 5.09333e-05
30 *1:29 5.09333e-05
31 *1:30 2.81872e-05
32 *1:31 2.81872e-05
33 *1:32 7.35475e-05
34 *1:33 7.35475e-05
35 *1:34 0.00023411
36 *1:35 0.000241521
37 *1:36 0.000150061
38 *1:37 7.92304e-05
39 *1:38 7.92304e-05
40 *1:39 0.000276482
41 *1:40 0.000187212
42 *1:41 0.000443921
43 *1:42 6.91902e-05
44 *1:43 6.91902e-05
45 *1:44 1.78614e-05
46 *1:45 1.78614e-05
47 *1:46 7.23978e-05
48 *1:47 0.00018481
49 *1:48 0.00015775
50 *1:49 0.00019165
51 *1:50 0.000186992
52 *1:51 0.000225798
53 *1:52 0.00015258
54 *1:66 2.26069e-05
55 *1:67 1.74587e-05
56 *1:68 1.74587e-05
57 *1:69 0.000263579
58 *1:70 0.000181881
59 *1:71 2.85534e-05
60 *1:72 0.000230331
61 *1:73 0.000235172
62 *1:74 3.82421e-05
63 *1:75 0.000309393
64 *1:76 2.92198e-05
65 *1:77 0.000129541
66 *1:78 1.78907e-05
67 *1:79 2.85534e-05
68 *1:80 0.000140987
69 *1:81 1.74587e-05
70 *1:82 3.82421e-05
71 *1:83 1.74587e-05
72 *1:84 0.000231269
73 *1:85 1.78907e-05
74 *1:86 1.78907e-05
75 *1:87 0.000215524
76 *1:88 1.74587e-05
77 *1:89 1.74587e-05
78 *1:90 0.000192214
79 *1:91 1.78907e-05
80 *1:92 1.78907e-05
81 *1:93 0.00047993
82 *1:94 1.78907e-05
83 *1:95 1.78907e-05
84 *1:96 0.000271283
85 *1:97 0.000111738
86 *1:98 0.000185469
87 *1:99 1.78907e-05
88 *1:100 1.78907e-05
89 *1:101 0.000149131
90 *1:102 5.21782e-05
91 *1:103 1.78907e-05
92 *1:104 7.54003e-05
93 *1:105 0.000126692
94 *1:106 0.000193788
95 *1:107 1.74587e-05
96 *1:108 7.28079e-05
97 *1:109 6.22184e-05
98 *1:110 1.78907e-05
99 *1:111 1.87476e-05

*RES
1 *1:46 *70:CK 7.99991
2 *1:47 *68:CK 7.99991
3 *1:47 *1:46 3.94932
4 *1:106 *66:CK 7.99991
5 *1:106 *1:47 6.2024
6 *1:107 *81:CK 7.99991
7 *1:109 *80:CK 7.99991
8 *1:86 *59:CK 7.99991
9 *1:65 *1:86 0.856619
10 *1:105 *64:CK 7.99991
11 *1:105 *1:106 3.94696
12 *1:42 *87:CK 7.99991
13 *1:107 *1:108 0.563919
14 *1:108 *1:109 3.38304
15 *1:92 *90:CK 7.99991
16 *1:64 *1:92 0.856619
17 *1:87 *1:86 7.99991
18 *1:102 *1:105 2.25544
19 *1:45 *91:CK 7.99991
20 *1:43 *1:42 3.82186
21 *1:48 *1:108 7.99991
22 *1:95 *78:CK 7.99991
23 *1:63 *1:95 0.856619
24 *1:93 *1:92 7.99991
25 *1:87 *1:93 12.4947
26 *1:99 *62:CK 7.99991
27 *1:56 *1:99 0.856619
28 *1:103 *1:102 7.99991
29 *1:54 *1:103 0.346283
30 *1:32 *89:CK 7.99991
31 *1:45 *1:44 0.56628
32 *1:49 *1:43 7.99991
33 *1:49 *1:48 10.1737
34 *1:96 *1:95 7.99991
35 *1:93 *1:96 14.8746
36 *1:62 *1:96 0.858743
37 *1:100 *1:99 7.99991
38 *1:55 *1:100 0.858743
39 *1:104 *1:103 7.99991
40 *1:88 *72:CK 7.99991
41 *1:33 *1:32 3.66063
42 *1:50 *1:44 7.99991
43 *1:50 *1:49 1.79231
44 *1:97 *1:96 7.99991
45 *1:101 *1:100 7.99991
46 *1:101 *1:104 3.95664
47 *1:110 *92:CK 7.99991
48 *1:57 *1:110 0.856619
49 *1:28 *85:CK 7.99991
50 *1:88 *1:89 0.563919
51 *1:51 *1:33 7.99991
52 *1:51 *1:50 8.33722
53 *1:97 *1:98 6.21774
54 *1:98 *1:101 3.95664
55 *1:111 *1:110 7.99991
56 *1:27 *83:CK 7.99991
57 *1:29 *1:28 4.36075
58 *1:90 *1:89 7.99991
59 *1:90 *1:51 4.16483
60 *1:94 *82:CK 7.99991
61 *1:58 *1:94 0.856619
62 *1:52 *1:98 7.99991
63 *1:52 *1:111 0.597438
64 *1:83 *74:CK 7.99991
65 *1:27 *1:26 0.56628
66 *1:84 *1:29 7.99991
67 *1:84 *1:90 5.94983
68 *1 *1:66 0.517418
69 *1:91 *88:CK 7.99991
70 *1:59 *1:91 0.856619
71 *1:39 *1:94 7.99991
72 *1:39 *1:52 9.53233
73 *1:81 *1:83 0.563919
74 *1:80 *1:26 7.99991
75 *1:80 *1:84 6.54491
76 *1:67 *1:66 7.99991
77 *1:30 *77:CK 7.99991
78 *1:37 *60:CK 7.99991
79 *1:85 *86:CK 7.99991
80 *1:60 *1:85 0.856619
81 *1:34 *1:91 7.99991
82 *1:34 *1:39 10.2646
83 *1:82 *1:81 7.99991
84 *1:76 *1:80 1.18992
85 *1:67 *1:68 0.563919
86 *1:31 *1:30 1.18166
87 *1:38 *79:CK 7.99991
88 *1:61 *1:38 0.856619
89 *1:38 *1:37 4.00267
90 *1:35 *1:85 7.99991
91 *1:35 *1:34 11.3013
92 *1:74 *1:82 1.785
93 *1:77 *1:76 7.99991
94 *1:69 *1:68 7.99991
95 *1:40 *1:31 7.99991
96 *1:36 *1:38 7.99991
97 *1:36 *1:35 10.1319
98 *1:75 *1:74 7.99991
99 *1:75 *1:77 7.34818
100 *1:69 *1:41 15.4696531
101 *1:41 *1:40 10.722
102 *1:70 *1:36 7.99991
103 *1:73 *1:75 10.7397
104 *1:73 *1:41 7.99991
105 *1:70 *1:72 10.1744
106 *1:72 *1:73 2.8262
107 *1:71 *1:72 7.99991
108 *1:71 *1:79 1.19488
109 *1:78 *84:CK 7.99991
110 *1:78 *1:79 7.99991
111 *1:53 *1:78 0.856619
*END

*D_NET *2 0.00226881

*CONN
*P *2 I *C 24.3 25.65 *L 0
*I *77:D I *C 11.7 12.825 *L 0.000307 *D DFFHQX1

*CAP
1 *2 0.00010736
2 *77:D 2.2672e-05
3 *2:2 6.50227e-05
4 *2:3 8.331e-05
5 *2:4 0.000179873
6 *2:5 0.000166259
7 *2:6 0.000258181
8 *2:7 0.000386841
9 *2:8 0.000253501
10 *2:9 7.60371e-05
11 *2:10 7.60371e-05
12 *2:11 0.00043017
13 *2:12 0.000163541

*RES
1 *2:12 *2 5.69205
2 *2:11 *2:12 4.45709
3 *2:7 *2:11 32.283329
4 *2:8 *2:7 7.9999
5 *2:6 *2:8 14.6599
6 *2:6 *2:10 0.904914
7 *2:9 *2:10 3.96103
8 *2:5 *2:9 0.904914
9 *2:4 *2:5 11.8481
10 *2:3 *2:4 1.81032
11 *2:2 *2:3 6.62011
12 *77:D *2:2 7.9999
*END

*D_NET *3 0.000945239

*CONN
*P *3 I *C 21.9 25.65 *L 0
*I *81:D I *C 20.7 17.955 *L 0.000307 *D DFFHQX1

*CAP
1 *3 2.92801e-05
2 *81:D 2.26683e-05
3 *3:2 5.18394e-05
4 *3:3 5.65207e-05
5 *3:4 0.0001087
6 *3:5 0.00013593
7 *3:6 0.00016241
8 *3:7 0.00016241
9 *3:8 7.07209e-05
10 *3:9 0.00010263
11 *3:10 4.21297e-05

*RES
1 *3:10 *3 1.55235
2 *3:2 *3:10 7.99995
3 *3:3 *3:2 2.82624
4 *3:6 *3:3 0.90512
5 *3:7 *3:6 9.62484837
6 *3:7 *3:4 0.90512
7 *3:5 *3:4 5.65469
8 *3:9 *3:5 2.71536
9 *3:8 *3:9 3.94696
10 *81:D *3:8 7.99995
*END

*D_NET *4 0.000766002

*CONN
*P *4 I *C 19.5 25.65 *L 0
*I *80:D I *C 20.7 19.665 *L 0.000307 *D DFFHQX1

*CAP
1 *4 5.89398e-05
2 *80:D 2.2672e-05
3 *4:2 7.29921e-05
4 *4:3 0.00017092
5 *4:4 0.00017092
6 *4:5 7.994e-05
7 *4:6 8.46189e-05
8 *4:7 3.94993e-05
9 *4:8 3.06814e-05
10 *4:9 3.48204e-05

*RES
1 *4:5 *80:D 7.99997
2 *4:5 *4:6 3.9631
3 *4:3 *4:6 0.905168
4 *4:3 *4:4 11.0385303
5 *4:4 *4:7 0.905168
6 *4:7 *4:9 1.69849
7 *4:8 *4:9 7.99997
8 *4:8 *4:2 1.11436
9 *4 *4:2 3.10476
*END

*D_NET *5 0.000677514

*CONN
*P *5 I *C 17.1 25.65 *L 0
*I *87:D I *C 17.5 19.665 *L 0.000307 *D DFFHQX1

*CAP
1 *5 1.96377e-05
2 *87:D 2.2669e-05
3 *5:2 3.36877e-05
4 *5:3 0.00028542
5 *5:4 3.06782e-05
6 *5:5 0.00028542

*RES
1 *5:3 *87:D 7.99988
2 *5:3 *5:5 16.3515701
3 *5:4 *5:5 7.99988
4 *5:4 *5:2 1.11429
5 *5 *5:2 1.03495
*END

*D_NET *6 0.00106291

*CONN
*P *6 I *C 14.7 25.65 *L 0
*I *91:D I *C 16.9 17.955 *L 0.000307 *D DFFHQX1

*CAP
1 *6 6.87692e-05
2 *91:D 2.26653e-05
3 *6:2 9.68586e-05
4 *6:3 0.00037815
5 *6:4 4.4719e-05
6 *6:5 0.000332629
7 *6:6 3.67966e-05
8 *6:7 8.23177e-05

*RES
1 *6:6 *91:D 8.00001
2 *6:6 *6:7 1.69161
3 *6:3 *6:7 3.62056
4 *6:3 *6:5 19.1801205
5 *6:4 *6:5 8.00001
6 *6:4 *6:2 2.22865
7 *6 *6:2 3.62232
*END

*D_NET *7 0.000740956

*CONN
*P *7 I *C 12.3 25.65 *L 0
*I *89:D I *C 14.1 19.665 *L 0.000307 *D DFFHQX1

*CAP
1 *7 8.84186e-05
2 *89:D 2.26693e-05
3 *7:2 0.000101268
4 *7:3 0.0002643
5 *7:4 0.0002643

*RES
1 *7:3 *89:D 8.00008
2 *7:3 *7:4 16.9154167
3 *7:2 *7:4 8.00008
4 *7 *7:2 4.65731
*END

*D_NET *8 0.000644939

*CONN
*P *8 I *C 9.9 25.65 *L 0
*I *85:D I *C 10.7 19.665 *L 0.000307 *D DFFHQX1

*CAP
1 *8 3.90428e-05
2 *85:D 2.26692e-05
3 *8:2 0.00026567
4 *8:3 0.00026567
5 *8:4 5.18895e-05

*RES
1 *8:3 *85:D 7.99997
2 *8:3 *8:2 16.9293842
3 *8:4 *8:2 7.99997
4 *8 *8:4 2.06993
*END

*D_NET *9 0.000941274

*CONN
*P *9 I *C 7.5 25.65 *L 0
*I *83:D I *C 8.77 18.025 *L 0.00021 *D DFFQXL

*CAP
1 *9 2.26687e-05
2 *83:D 2.26687e-05
3 *9:2 0.00031151
4 *9:3 0.00023876
5 *9:4 2.94184e-05
6 *9:5 3.41004e-05
7 *9:6 3.064e-05
8 *9:7 9.87078e-05
9 *9:8 7.64004e-05
10 *9:9 7.64004e-05

*RES
1 *9:4 *83:D 8.00011
2 *9:4 *9:5 1.13013
3 *9:5 *9:8 0.905033
4 *9:8 *9:9 3.94697
5 *9:6 *9:9 0.905033
6 *9:6 *9:7 1.12781
7 *9:3 *9 8.00011
8 *9:2 *9:7 5.43066
9 *9:2 *9:3 15.223875
*END

*D_NET *10 0.000685437

*CONN
*P *10 I *C 7.9 0 *L 0
*I *79:D I *C 8.1 7.695 *L 0.000307 *D DFFHQX1

*CAP
1 *10 2.26678e-05
2 *79:D 2.26678e-05
3 *10:2 3.44767e-05
4 *10:3 3.9161e-05
5 *10:4 0.00028557
6 *10:5 0.00028089

*RES
1 *10:5 *79:D 8.00007
2 *10:4 *10:5 21.8137016
3 *10:3 *10:4 0.905021
4 *10:2 *10:3 1.69155
5 *10 *10:2 8.00007
*END

*D_NET *11 0.000892322

*CONN
*P *11 I *C 10.3 0 *L 0
*I *86:D I *C 11.3 7.695 *L 0.000307 *D DFFHQX1

*CAP
1 *11 3.90392e-05
2 *86:D 2.26675e-05
3 *11:2 5.30891e-05
4 *11:3 3.06816e-05
5 *11:4 0.000284051
6 *11:5 0.00028873
7 *11:6 8.93704e-05
8 *11:7 8.46915e-05

*RES
1 *11:7 *86:D 8.00004
2 *11:6 *11:7 4.30722
3 *11:5 *11:6 0.905196
4 *11:4 *11:5 17.483923
5 *11:3 *11:4 8.00004
6 *11:2 *11:3 1.11435
7 *11 *11:2 2.06997
*END

*D_NET *12 0.000917757

*CONN
*P *12 I *C 12.7 0 *L 0
*I *90:D I *C 15.7 5.985 *L 0.000307 *D DFFHQX1

*CAP
1 *12 6.83191e-05
2 *90:D 2.26697e-05
3 *12:2 9.28477e-05
4 *12:3 0.000122138
5 *12:4 0.000110461
6 *12:5 0.00025066
7 *12:6 0.00025066

*RES
1 *12:6 *90:D 8.00011
2 *12:5 *12:6 15.223875
3 *12:2 *12:5 8.00011
4 *12:3 *12:2 4.13978
5 *12:4 *12:3 3.34277
6 *12 *12:4 3.62222
*END

*D_NET *13 0.000858582

*CONN
*P *13 I *C 15.1 0 *L 0
*I *88:D I *C 14.5 7.695 *L 0.000307 *D DFFHQX1

*CAP
1 *13 2.97304e-05
2 *88:D 2.26709e-05
3 *13:2 5.78233e-05
4 *13:3 4.4719e-05
5 *13:4 0.00035182
6 *13:5 0.00035182

*RES
1 *13:5 *88:D 8.00006
2 *13:4 *13:5 20.8623466
3 *13:3 *13:4 8.00006
4 *13:2 *13:3 2.22866
5 *13:2 *13 1.55252
*END

*D_NET *14 0.000930996

*CONN
*P *14 I *C 17.5 0 *L 0
*I *82:D I *C 17.7 7.695 *L 0.000307 *D DFFHQX1

*CAP
1 *14 1.952e-05
2 *82:D 2.26695e-05
3 *14:2 0.000153748
4 *14:3 0.000121839
5 *14:4 3.23686e-05
6 *14:5 6.00217e-05
7 *14:6 7.83098e-05
8 *14:7 0.000214449
9 *14:8 0.00022807

*RES
1 *14:3 *82:D 7.99998
2 *14:2 *14:3 6.76614
3 *14:2 *14:8 2.71538
4 *14:7 *14:8 11.8407917
5 *14:6 *14:7 1.81019
6 *14:5 *14:6 3.38316
7 *14:4 *14:5 7.99998
8 *14 *14:4 1.03491
*END

*D_NET *15 0.000938098

*CONN
*P *15 I *C 19.9 0 *L 0
*I *92:D I *C 20.9 7.695 *L 0.000307 *D DFFHQX1

*CAP
1 *15 1.95195e-05
2 *92:D 2.26706e-05
3 *15:2 0.00037208
4 *15:3 0.00037208
5 *15:4 4.76122e-05
6 *15:5 5.96884e-05
7 *15:6 4.44497e-05

*RES
1 *15:2 *92:D 7.99984
2 *15:3 *15:2 21.440218
3 *15:6 *15:3 7.99984
4 *15:5 *15:6 1.55234
5 *15:4 *15:5 2.22856
6 *15 *15:4 1.03478
*END

*D_NET *16 0.000845857

*CONN
*P *16 I *C 22.3 0 *L 0
*I *78:D I *C 20.7 5.985 *L 0.000307 *D DFFHQX1

*CAP
1 *16 6.90572e-05
2 *78:D 2.26682e-05
3 *16:2 0.00020289
4 *16:3 0.00020289
5 *16:4 8.19083e-05
6 *16:5 5.307e-05
7 *16:6 7.13606e-05
8 *16:7 8.01498e-05
9 *16:8 6.18592e-05

*RES
1 *16:8 *78:D 7.99992
2 *16:4 *16 5.27845
3 *16:7 *16:8 3.07653
4 *16:5 *16:4 7.99992
5 *16:3 *16:7 1.81022
6 *16:5 *16:6 3.21908
7 *16:2 *16:3 11.3233519
8 *16:2 *16:6 1.81022
*END

*D_NET *17 0.00281756

*CONN
*P *17 I *C 24.7 0 *L 0
*I *84:D I *C 8.77 11.185 *L 0.00021 *D DFFQXL

*CAP
1 *17 0.000107363
2 *84:D 2.26688e-05
3 *17:2 7.37569e-05
4 *17:3 7.25607e-05
5 *17:4 0.00055997
6 *17:5 0.00055997
7 *17:6 0.000467987
8 *17:7 0.000463989
9 *17:8 3.3717e-05
10 *17:9 3.77073e-05
11 *17:10 1.74566e-05
12 *17:11 1.74566e-05
13 *17:12 0.000130775
14 *17:13 0.000130775
15 *17:14 0.00012141

*RES
1 *17:14 *17 5.69207
2 *17:14 *17:2 1.1143
3 *17:3 *17:2 2.82352
4 *17:5 *17:3 8.00022
5 *17:5 *17:4 32.7914391
6 *17:8 *17:4 8.00022
7 *17:9 *17:8 1.94139
8 *17:9 *17:13 0.862116
9 *17:12 *17:13 7.16912
10 *17:6 *17:12 0.862116
11 *17:7 *17:6 30.7049
12 *17:11 *17:7 8.00022
13 *17:10 *17:11 0.563903
14 *84:D *17:10 8.00022
*END

*D_NET *18 0.00213337

*CONN
*P *18 O *C 26.4 5.225 *L 0
*I *59:Q O *C 8.94 6.11 *L 0 *D DFFHQX1

*CAP
1 *18 0.000107356
2 *59:Q 2.26733e-05
3 *18:2 4.95812e-05
4 *18:3 4.95812e-05
5 *18:4 0.00070747
6 *18:5 0.000141179
7 *18:6 0.00072271
8 *18:7 0.000169266
9 *18:8 0.000163543

*RES
1 *18:8 *18 5.69235
2 *18:7 *18:8 4.45723
3 *18:5 *18:7 6.52105
4 *18:2 *59:Q 8.00002
5 *18:5 *18:6 2.22837
6 *18:3 *18:2 2.26455
7 *18:4 *18:6 32.4818153
8 *18:4 *18:3 8.00002
*END

*D_NET *19 0.000991923

*CONN
*P *19 O *C 26.4 7.695 *L 0
*I *62:Q O *C 18.14 9.53 *L 0 *D DFFHQX1

*CAP
1 *19 0.000108028
2 *62:Q 2.26702e-05
3 *19:2 1.74627e-05
4 *19:3 0.00029269
5 *19:4 1.74627e-05
6 *19:5 0.000120881
7 *19:6 6.00208e-05
8 *19:7 6.00208e-05
9 *19:8 0.00029269

*RES
1 *19:5 *19 5.69223
2 *19:6 *19:5 8.00009
3 *19:6 *19:7 3.38304
4 *19:8 *19:7 8.00009
5 *19:3 *19:8 17.2914505
6 *19:4 *62:Q 8.00009
7 *19:2 *19:3 8.00009
8 *19:2 *19:4 0.56384
*END

*D_NET *20 0.00110245

*CONN
*P *20 O *C 26.4 10.165 *L 0
*I *64:Q O *C 18.14 10.99 *L 0 *D DFFHQX1

*CAP
1 *20 1.40511e-05
2 *64:Q 2.26688e-05
3 *20:3 1.78876e-05
4 *20:4 0.00031428
5 *20:5 3.46291e-05
6 *20:6 5.78014e-05
7 *20:7 5.78014e-05
8 *20:8 0.00031428
9 *20:9 7.4399e-05
10 *20:10 3.5828e-05
11 *20:11 7.4399e-05
12 *20:12 4.22109e-05
13 *20:13 4.22109e-05

*RES
1 *20:13 *20 1.11438
2 *20:12 *20:13 1.757
3 *20:11 *20:12 1.11438
4 *20:9 *20:11 3.10473
5 *20:9 *20:10 1.11438
6 *20:5 *20:10 1.02585
7 *20:6 *20:5 8.00008
8 *20:6 *20:7 2.81927
9 *20:8 *20:7 8.00008
10 *20:4 *20:8 18.3588963
11 *20:3 *20:4 8.00008
12 *20:3 *64:Q 8.00008
13 *20:2 *20:3 0.856651
*END

*D_NET *21 0.000937696

*CONN
*P *21 O *C 26.4 12.635 *L 0
*I *66:Q O *C 18.14 12.95 *L 0 *D DFFHQX1

*CAP
1 *21 0.000233142
2 *66:Q 2.26715e-05
3 *21:2 0.000126919
4 *21:3 0.000126919
5 *21:4 2.85496e-05
6 *21:5 3.25397e-05
7 *21:7 1.78895e-05
8 *21:8 3.20817e-05
9 *21:9 3.60718e-05
10 *21:10 1.74616e-05
11 *21:11 0.00024599
12 *21:12 1.74616e-05

*RES
1 *21:11 *21 12.6602459
2 *21:12 *21:11 7.99997
3 *21:10 *21:12 0.563892
4 *21:4 *21:10 7.99997
5 *21:5 *21:4 1.19482
6 *21:2 *21:5 0.861969
7 *21:3 *21:2 7.34934
8 *21:3 *21:9 0.861969
9 *21:8 *21:9 1.19482
10 *21:7 *21:8 7.99997
11 *21:7 *66:Q 7.99997
12 *21:6 *21:7 0.85656
*END

*D_NET *22 0.00103623

*CONN
*P *22 O *C 26.4 15.105 *L 0
*I *68:Q O *C 18.14 14.41 *L 0 *D DFFHQX1

*CAP
1 *22 0.000107359
2 *68:Q 2.26682e-05
3 *22:3 1.78901e-05
4 *22:4 0.000152600205
5 *22:5 4.34015e-05
6 *22:6 0.000152600205
7 *22:7 3.16284e-05
8 *22:8 4.34015e-05
9 *22:9 0.000141181
10 *22:10 4.6871e-05
11 *22:11 0.000141181
12 *22:12 0.000135451

*RES
1 *22:12 *22 5.69213
2 *22:11 *22:12 2.22849
3 *22:9 *22:11 6.52093
4 *22:9 *22:10 2.22849
5 *22:7 *22:10 1.17131
6 *22:8 *22:7 8
7 *22:5 *22:8 2.25773
8 *22:6 *22:5 8
9 *22:4 *22:6 9.25633907
10 *22:3 *22:4 8
11 *22:3 *68:Q 8
12 *22:2 *22:3 0.856624
*END

*D_NET *23 0.000939556

*CONN
*P *23 O *C 26.4 17.575 *L 0
*I *70:Q O *C 18.14 16.37 *L 0 *D DFFHQX1

*CAP
1 *23 1.98716e-05
2 *70:Q 2.26713e-05
3 *23:3 1.78912e-05
4 *23:4 0.00022376
5 *23:5 6.22199e-05
6 *23:6 0.00022376
7 *23:7 3.2911e-05
8 *23:8 6.22199e-05
9 *23:9 3.41094e-05
10 *23:10 0.00010311
11 *23:11 3.39217e-05
12 *23:12 0.00010311

*RES
1 *23:11 *23 1.03502
2 *23:11 *23:12 1.11431
3 *23:10 *23:12 9.5011
4 *23:9 *23:10 1.11431
5 *23:7 *23:9 1.03502
6 *23:8 *23:7 7.99991
7 *23:5 *23:8 3.38308
8 *23:6 *23:5 7.99991
9 *23:4 *23:6 13.0897064
10 *23:3 *23:4 7.99991
11 *23:3 *70:Q 7.99991
12 *23:2 *23:3 0.856655
*END

*D_NET *24 0.00218702

*CONN
*P *24 O *C 26.4 20.045 *L 0
*I *72:Q O *C 10.14 17.83 *L 0 *D DFFHQX1

*CAP
1 *24 5.61846e-05
2 *72:Q 2.26738e-05
3 *24:2 6.57119e-05
4 *24:3 7.03907e-05
5 *24:4 4.33081e-05
6 *24:5 0.000639934
7 *24:6 3.86294e-05
8 *24:7 0.00065517
9 *24:8 0.000234416
10 *24:9 4.90465e-05
11 *24:10 0.000234416
12 *24:11 7.71388e-05

*RES
1 *24 *24:11 4.45732
2 *24:9 *24:11 1.02909
3 *24:9 *24:10 2.22866
4 *24:8 *24:10 10.8668
5 *24:7 *24:8 2.22866
6 *24:5 *24:7 28.7232208
7 *24:6 *24:5 7.99995
8 *24:4 *24:6 1.69834
9 *24:3 *24:4 0.905051
10 *24:2 *24:3 6.51856
11 *72:Q *24:2 7.99995
*END

*D_NET *25 0.0025961

*CONN
*P *25 O *C 26.4 22.515 *L 0
*I *74:Q O *C 6.1 16.435 *L 0 *D DFFQXL

*CAP
1 *25 0.000995522
2 *74:Q 1.96643e-05
3 *25:2 3.25276e-05
4 *25:3 0.000270007
5 *25:4 0.00100837
6 *25:5 0.000270007

*RES
1 *25:4 *25 52.7816849
2 *25:5 *25:4 7.99989
3 *25:3 *25:5 19.3043
4 *25:2 *25:3 7.99989
5 *25:2 *74:Q 1.03492
*END

*D_NET *26 0.00133298

*CONN
*P *26 O *C 0 0 *L 0
*I *60:Q O *C 5.54 9.53 *L 0 *D DFFHQX1

*CAP
1 *26 0.00066649
2 *60:Q 0.00066649

*RES
1 *26 *60:Q 71.7646
*END

*D_NET *27 0.000535084

*CONN
*I *77:Q O *C 9.14 12.95 *L 0 *D DFFHQX1
*I *61:A I *C 11.47 9.52 *L 0.000843 *D ADDFX1

*CAP
1 *77:Q 2.26711e-05
2 *61:A 2.26711e-05
3 *27:2 0.00011557
4 *27:3 2.92003e-05
5 *27:4 0.0001293
6 *27:5 0.00021567

*RES
1 *27:4 *61:A 8
2 *27:4 *27:5 6.76611
3 *27:3 *77:Q 8
4 *27:2 *27:5 6.33582
5 *27:2 *27:3 1.9834
*END

*D_NET *28 0.00142514

*CONN
*I *81:Q O *C 18.14 17.83 *L 0 *D DFFHQX1
*I *63:A I *C 14.67 9.52 *L 0.000843 *D ADDFX1

*CAP
1 *81:Q 2.26692e-05
2 *63:A 2.26692e-05
3 *28:2 5.48494e-05
4 *28:3 5.48494e-05
5 *28:4 1.87991e-05
6 *28:5 1.87991e-05
7 *28:7 0.00038428
8 *28:8 0.000223027
9 *28:9 0.00038428
10 *28:10 1.78903e-05
11 *28:11 0.000223027

*RES
1 *28:3 *63:A 7.99997
2 *28:3 *28:2 2.47234
3 *28:5 *28:2 7.99997
4 *28:5 *28:4 0.599754
5 *28:7 *28:4 7.99997
6 *28:7 *28:9 22.0445614
7 *28:8 *28:9 7.99997
8 *28:8 *28:11 12.5461
9 *28:10 *28:11 7.99997
10 *28:10 *81:Q 7.99997
11 *28:6 *28:10 0.856743
*END

*D_NET *29 0.00112815

*CONN
*I *80:Q O *C 18.14 19.79 *L 0 *D DFFHQX1
*I *65:A I *C 16.87 11 *L 0.000843 *D ADDFX1

*CAP
1 *80:Q 2.26705e-05
2 *65:A 2.26705e-05
3 *29:2 0.000286182
4 *29:3 0.00029086
5 *29:4 0.000113659
6 *29:5 0.000108981
7 *29:7 0.000132619
8 *29:8 1.78905e-05
9 *29:9 0.000132619

*RES
1 *29:5 *65:A 8.00005
2 *29:5 *29:4 8.86318
3 *29:3 *29:4 0.905117
4 *29:3 *29:2 17.9859791
5 *29:7 *29:2 8.00005
6 *29:7 *29:9 7.16931
7 *29:8 *29:9 8.00005
8 *29:8 *80:Q 8.00005
9 *29:6 *29:8 0.856541
*END

*D_NET *30 0.000884597

*CONN
*I *87:Q O *C 14.94 19.79 *L 0 *D DFFHQX1
*I *67:A I *C 15.07 12.94 *L 0.000843 *D ADDFX1

*CAP
1 *87:Q 2.26726e-05
2 *67:A 2.26726e-05
3 *30:2 0.00033435
4 *30:3 0.00033435
5 *30:4 3.06366e-05
6 *30:5 3.06366e-05
7 *30:6 5.46358e-05
8 *30:7 5.46358e-05

*RES
1 *30:2 *87:Q 8.00005
2 *30:3 *30:2 18.4687595
3 *30:7 *30:3 8.00005
4 *30:6 *30:7 2.38976
5 *30:4 *30:6 8.00005
6 *30:5 *30:4 1.23602
7 *67:A *30:5 8.00005
*END

*D_NET *31 0.00019762

*CONN
*I *91:Q O *C 14.34 17.83 *L 0 *D DFFHQX1
*I *69:A I *C 15.07 16.36 *L 0.000843 *D ADDFX1

*CAP
1 *91:Q 9.90977e-06
2 *69:A 2.26701e-05
3 *31:2 7.114e-05
4 *31:3 2.27592e-05
5 *31:4 7.114e-05

*RES
1 *31:3 *91:Q 0.517456
2 *31:4 *31:3 8
3 *31:2 *31:4 3.96313
4 *69:A *31:2 8
*END

*D_NET *32 0.00120614

*CONN
*I *89:Q O *C 11.54 19.79 *L 0 *D DFFHQX1
*I *71:A I *C 17.27 14.42 *L 0.000843 *D ADDFX1

*CAP
1 *89:Q 2.26716e-05
2 *71:A 2.26716e-05
3 *32:2 0.000231911
4 *32:3 0.00023659
5 *32:4 7.87803e-05
6 *32:5 7.47911e-05
7 *32:6 0.00018846
8 *32:7 0.00018846
9 *32:8 2.99424e-05
10 *32:9 3.3928e-05
11 *32:10 3.76898e-05
12 *32:11 3.76898e-05
13 *32:12 2.25597e-05

*RES
1 *32:11 *71:A 7.99997
2 *32:11 *32:10 2.67151
3 *32:8 *32:10 7.99997
4 *32:9 *32:8 1.19495
5 *32:9 *32:6 0.861908
6 *32:7 *32:6 8.95173
7 *32:4 *32:7 0.861908
8 *32:5 *32:4 3.57475
9 *32:12 *32:5 7.99997
10 *32:2 *89:Q 7.99997
11 *32:3 *32:12 0.905188
12 *32:3 *32:2 12.7192087
*END

*D_NET *33 0.00110124

*CONN
*I *85:Q O *C 8.14 19.79 *L 0 *D DFFHQX1
*I *73:A I *C 13.87 14.42 *L 0.000843 *D ADDFX1

*CAP
1 *85:Q 2.26697e-05
2 *73:A 2.26697e-05
3 *33:2 0.000119358
4 *33:3 0.000137651
5 *33:4 0.000111238
6 *33:5 0.00027012
7 *33:6 0.000111238
8 *33:7 3.61685e-05
9 *33:8 0.00027012

*RES
1 *33:7 *73:A 7.99991
2 *33:7 *33:3 1.81025
3 *33:3 *33:2 7.7438
4 *33:8 *33:2 7.99991
5 *33:5 *33:8 15.4696531
6 *33:6 *85:Q 7.99991
7 *33:4 *33:5 7.99991
8 *33:4 *33:6 9.23468
*END

*D_NET *34 0.000972458

*CONN
*I *83:Q O *C 5.9 17.765 *L 0 *D DFFQXL
*I *76:B I *C 5.3 14.535 *L 0.00021 *D AND2XL
*I *75:A1N I *C 7.74 14.52 *L 0.00021 *D AOI2BB1XL

*CAP
1 *83:Q 3.69315e-05
2 *76:B 2.26709e-05
3 *75:A1N 2.26709e-05
4 *34:3 0.000130008
5 *34:4 0.00019151
6 *34:5 3.52921e-05
7 *34:6 6.83691e-05
8 *34:7 4.97806e-05
9 *34:8 9.45204e-05
10 *34:9 3.64902e-05
11 *34:10 9.45204e-05
12 *34:11 3.58298e-05
13 *34:12 3.46287e-05
14 *34:13 5.96199e-05
15 *34:14 5.96199e-05

*RES
1 *34:14 *75:A1N 8.00007
2 *34:13 *34:14 2.82395
3 *34:12 *34:13 8.00007
4 *34:11 *34:12 1.02589
5 *34:7 *83:Q 1.55239
6 *34:10 *34:11 1.1143
7 *34:3 *34:7 8.00007
8 *34:8 *34:10 4.13971
9 *34:4 *76:B 8.00007
10 *34:4 *34:3 10.7693014
11 *34:8 *34:9 1.1143
12 *34:6 *34:4 3.39696
13 *34:5 *34:9 1.02589
14 *34:5 *34:6 8.00007
*END

*D_NET *35 0.000762396

*CONN
*I *79:Q O *C 5.54 7.57 *L 0 *D DFFHQX1
*I *61:B I *C 11.295 9.495 *L 0.000837 *D ADDFX1

*CAP
1 *79:Q 2.26695e-05
2 *61:B 2.26695e-05
3 *35:2 5.06599e-05
4 *35:3 5.06599e-05
5 *35:4 1.95285e-05
6 *35:5 1.95285e-05
7 *35:6 0.000148149
8 *35:7 0.00015214
9 *35:8 0.000106901
10 *35:9 3.32904e-05
11 *35:10 0.000106901
12 *35:11 2.92997e-05

*RES
1 *35:2 *61:B 8
2 *35:3 *35:2 3.89026
3 *35:11 *35:3 8
4 *35:9 *35:11 1.19983
5 *35:9 *35:10 0.861938
6 *35:8 *35:10 6.99915
7 *35:7 *35:8 0.861938
8 *35:6 *35:7 7.76416
9 *35:5 *35:6 8
10 *35:4 *35:5 0.615356
11 *79:Q *35:4 8
*END

*D_NET *36 0.000646096

*CONN
*I *86:Q O *C 8.74 7.57 *L 0 *D DFFHQX1
*I *63:B I *C 14.495 9.495 *L 0.000837 *D ADDFX1

*CAP
1 *86:Q 2.26705e-05
2 *63:B 2.26705e-05
3 *36:2 0.0002174
4 *36:3 0.0002174
5 *36:4 2.76796e-05
6 *36:5 2.76796e-05
7 *36:6 5.52996e-05
8 *36:7 5.52996e-05

*RES
1 *36:4 *63:B 7.99995
2 *36:5 *36:4 1.1371
3 *36:2 *36:5 7.99995
4 *36:3 *36:2 17.3506546
5 *36:7 *36:3 7.99995
6 *36:6 *36:7 2.81932
7 *86:Q *36:6 7.99995
*END

*D_NET *37 0.000961838

*CONN
*I *90:Q O *C 13.14 6.11 *L 0 *D DFFHQX1
*I *65:B I *C 16.695 11.025 *L 0.000837 *D ADDFX1

*CAP
1 *90:Q 2.26673e-05
2 *65:B 2.26673e-05
3 *37:2 0.000164311
4 *37:3 0.000164311
5 *37:4 0.00018369
6 *37:5 0.00018369
7 *37:6 2.25608e-05
8 *37:7 9.6631e-05
9 *37:8 0.000101309

*RES
1 *37:6 *65:B 7.99997
2 *37:6 *37:8 0.905111
3 *37:7 *37:8 5.09094
4 *37:2 *37:7 7.99997
5 *37:3 *37:2 9.97936535
6 *37:4 *37:3 7.99997
7 *37:5 *37:4 9.59
8 *90:Q *37:5 7.99997
*END

*D_NET *38 0.00082262

*CONN
*I *88:Q O *C 11.94 7.57 *L 0 *D DFFHQX1
*I *67:B I *C 14.895 12.915 *L 0.000837 *D ADDFX1

*CAP
1 *88:Q 2.26701e-05
2 *67:B 2.26701e-05
3 *38:2 3.87103e-05
4 *38:3 3.87103e-05
5 *38:4 2.67688e-05
6 *38:5 3.14503e-05
7 *38:6 8.0681e-05
8 *38:7 7.59996e-05
9 *38:8 0.000112589
10 *38:9 0.000112589
11 *38:10 0.00012989
12 *38:11 0.00012989

*RES
1 *38:4 *67:B 8
2 *38:5 *38:4 1.13232
3 *38:8 *38:5 0.905151
4 *38:9 *38:8 5.09546
5 *38:9 *38:6 0.905151
6 *38:7 *38:6 7.22034
7 *38:11 *38:7 8
8 *38:10 *38:11 7.49109
9 *38:2 *38:10 8
10 *38:3 *38:2 1.69849
11 *88:Q *38:3 8
*END

*D_NET *39 0.00102974

*CONN
*I *82:Q O *C 15.14 7.57 *L 0 *D DFFHQX1
*I *69:B I *C 14.895 16.335 *L 0.000837 *D ADDFX1

*CAP
1 *82:Q 2.01127e-05
2 *69:B 2.26685e-05
3 *39:2 0.00031249
4 *39:3 0.000298877
5 *39:4 4.51319e-05
6 *39:5 6.3423e-05
7 *39:6 3.29584e-05
8 *39:7 2.70601e-05
9 *39:8 3.17377e-05
10 *39:9 8.76412e-05
11 *39:10 8.76412e-05

*RES
1 *39:6 *82:Q 1.03503
2 *39:7 *39:6 7.99988
3 *39:7 *39:8 1.12779
4 *39:8 *39:9 0.905105
5 *39:9 *39:10 5.4947
6 *39:3 *39:10 0.905105
7 *39:4 *69:B 7.99988
8 *39:3 *39:2 16.7941647
9 *39:5 *39:4 2.27404
10 *39:5 *39:2 1.81021
*END

*D_NET *40 0.000979502

*CONN
*I *92:Q O *C 18.34 7.57 *L 0 *D DFFHQX1
*I *71:B I *C 17.095 14.445 *L 0.000837 *D ADDFX1

*CAP
1 *92:Q 2.26698e-05
2 *71:B 2.26698e-05
3 *40:2 2.85498e-05
4 *40:3 2.85498e-05
5 *40:4 0.000117031
6 *40:5 0.000117031
7 *40:6 7.28806e-05
8 *40:7 0.00023116
9 *40:8 0.00023116
10 *40:9 1.746e-05
11 *40:10 1.746e-05
12 *40:11 7.28806e-05

*RES
1 *40:4 *71:B 8.00001
2 *40:5 *40:4 6.27671
3 *40:2 *40:5 8.00001
4 *40:3 *40:2 1.19485
5 *40:9 *92:Q 8.00001
6 *40:8 *40:3 8.00001
7 *40:9 *40:10 0.563934
8 *40:7 *40:8 12.4353943
9 *40:11 *40:10 8.00001
10 *40:6 *40:7 8.00001
11 *40:6 *40:11 7.84574
*END

*D_NET *41 0.00157946

*CONN
*I *78:Q O *C 18.14 6.11 *L 0 *D DFFHQX1
*I *73:B I *C 13.695 14.445 *L 0.000837 *D ADDFX1

*CAP
1 *78:Q 0.000111482
2 *73:B 2.26688e-05
3 *41:2 8.4608e-05
4 *41:3 0.000111841
5 *41:4 0.00022384
6 *41:5 0.000228519063
7 *41:6 0.000132261
8 *41:7 0.000132261
9 *41:8 1.96387e-05
10 *41:9 1.96387e-05
11 *41:10 0.000128112
12 *41:11 0.000166343
13 *41:12 0.000198249

*RES
1 *41:10 *78:Q 5.17465
2 *41:11 *41:10 8
3 *41:11 *41:12 8.45772
4 *41:3 *41:12 2.71546
5 *41:3 *41:2 4.81667
6 *41:5 *41:2 0.90509
7 *41:5 *41:4 12.7918835
8 *41:6 *41:4 8
9 *41:7 *41:6 6.58176
10 *41:8 *41:7 8
11 *41:9 *41:8 0.618162
12 *73:B *41:9 8
*END

*D_NET *42 0.00057749

*CONN
*I *84:Q O *C 5.9 10.925 *L 0 *D DFFQXL
*I *76:A I *C 5.7 14.725 *L 0.000211 *D AND2XL
*I *75:A0N I *C 7.34 14.94 *L 0.000211 *D AOI2BB1XL

*CAP
1 *84:Q 1.00587e-05
2 *76:A 2.26693e-05
3 *75:A0N 2.26693e-05
4 *42:3 1.78797e-05
5 *42:4 0.00017171
6 *42:5 0.0001607
7 *42:7 2.29104e-05
8 *42:8 6.55005e-05
9 *42:9 1.78902e-05
10 *42:10 6.55005e-05

*RES
1 *42:7 *84:Q 0.517516
2 *42:5 *42:7 7.99999
3 *42:3 *76:A 7.99999
4 *42:5 *42:4 9.18385029
5 *42:4 *42:3 0.566143
6 *42:8 *42:4 7.99999
7 *42:8 *42:10 5.5496
8 *42:9 *75:A0N 7.99999
9 *42:9 *42:10 7.99999
10 *42:6 *42:9 0.856642
*END

*D_NET *43 0.00089997

*CONN
*I *76:Y O *C 5.93 14.865 *L 0 *D AND2XL
*I *75:B0 I *C 7.15 14.74 *L 0.000212 *D AOI2BB1XL
*I *73:CI I *C 13.61 14.205 *L 0.00056 *D ADDFX1

*CAP
1 *76:Y 1.97987e-05
2 *75:B0 2.26699e-05
3 *73:CI 2.26699e-05
4 *43:3 2.19018e-05
5 *43:4 7.60484e-05
6 *43:5 1.75712e-05
7 *43:6 6.31494e-05
8 *43:7 3.265e-05
9 *43:8 1.76295e-05
10 *43:9 0.000169591
11 *43:10 9.33282e-05
12 *43:11 0.00017358
13 *43:12 4.00213e-05
14 *43:13 8.93393e-05
15 *43:14 4.00213e-05

*RES
1 *43:14 *73:CI 7.99996
2 *43:12 *43:14 1.69156
3 *43:13 *43:12 7.99996
4 *43:10 *43:13 8.47363
5 *43:10 *43:11 0.862053
6 *43:9 *43:11 9.52224445
7 *43:5 *43:9 7.99996
8 *43:3 *75:B0 7.99996
9 *43:5 *43:4 0.566226
10 *43:4 *43:3 1.26322
11 *43:6 *43:4 3.62053
12 *43:6 *43:8 0.568551
13 *43:7 *43:8 7.99996
14 *76:Y *43:7 1.03496
*END

*D_NET *44 0.000404662

*CONN
*I *75:Y O *C 7.05 14.025 *L 0 *D AOI2BB1XL
*I *74:D I *C 8.97 16.175 *L 0.00021 *D DFFQXL

*CAP
1 *75:Y 2.26712e-05
2 *74:D 2.26712e-05
3 *44:2 0.0001075
4 *44:3 0.0001075
5 *44:4 1.74598e-05
6 *44:5 1.74598e-05
7 *44:6 5.47006e-05
8 *44:7 5.47006e-05

*RES
1 *44:7 *74:D 8
2 *44:6 *44:7 2.81921
3 *44:2 *44:6 8
4 *44:3 *44:2 5.95483
5 *44:5 *44:3 8
6 *44:4 *44:5 0.563843
7 *75:Y *44:4 8
*END

*D_NET *45 0.000551214

*CONN
*I *73:CO O *C 11.34 14.79 *L 0 *D ADDFX1
*I *71:CI I *C 17.01 14.205 *L 0.00056 *D ADDFX1

*CAP
1 *73:CO 2.26702e-05
2 *71:CI 2.26702e-05
3 *45:2 0.000156662
4 *45:3 0.00016065
5 *45:5 1.789e-05